Version 4
SHEET 1 880 680
WIRE 192 16 0 16
WIRE 320 16 192 16
WIRE 416 16 320 16
WIRE 320 32 320 16
WIRE 256 80 240 80
WIRE 416 96 416 16
WIRE 192 112 192 16
WIRE 160 128 128 128
WIRE 336 128 320 128
WIRE 240 144 240 80
WIRE 240 144 224 144
WIRE 336 144 336 128
WIRE 352 144 336 144
WIRE 0 160 0 16
WIRE 160 160 80 160
WIRE 80 176 80 160
WIRE 192 208 192 176
WIRE 192 208 144 208
WIRE 416 224 416 192
WIRE 480 224 416 224
WIRE 544 224 480 224
WIRE 128 256 128 128
WIRE 208 256 128 256
WIRE 272 256 208 256
WIRE 416 256 416 224
WIRE 416 256 352 256
WIRE 208 288 208 256
WIRE 480 288 480 224
WIRE 0 400 0 240
WIRE 80 400 80 256
WIRE 80 400 0 400
WIRE 112 400 80 400
WIRE 144 400 144 208
WIRE 144 400 112 400
WIRE 208 400 208 368
WIRE 208 400 144 400
WIRE 480 400 480 352
WIRE 480 400 208 400
WIRE 112 448 112 400
FLAG 112 448 0
FLAG 544 224 VOUT
IOPIN 544 224 Out
SYMBOL Opamps\\LT1014A 192 80 R0
SYMATTR InstName U1
SYMBOL voltage 80 160 R0
WINDOW 123 0 0 Left 0
WINDOW 39 0 0 Left 0
SYMATTR InstName V2
SYMATTR Value 7.5
SYMBOL voltage 0 144 R0
WINDOW 123 0 0 Left 0
WINDOW 39 0 0 Left 0
SYMATTR InstName V1
SYMATTR Value 15
SYMBOL res 192 272 R0
SYMATTR InstName R1
SYMATTR Value 10K
SYMBOL res 368 240 R90
WINDOW 0 0 56 VBottom 2
WINDOW 3 32 56 VTop 2
SYMATTR InstName R2
SYMATTR Value 10K
SYMBOL npn 352 96 R0
SYMATTR InstName Q1
SYMBOL npn 256 32 R0
SYMATTR InstName Q2
SYMBOL cap 464 288 R0
SYMATTR InstName C1
SYMATTR Value 1µ
TEXT 264 464 Left 2 !.tran 0 10m 0 10u
